LTspice 24.1.5 for Windows
Circuit: G:\My Drive\ccd_controller\adc_board_prot\sim\3V3D\3v3d.net
Start Time: Tue Mar 25 16:34:52 2025
solver = Normal
Maximum thread count: 16
tnom = 27
temp = 27
method = trap
CoutC: Increased Cpar to 4.7e-11
CinB: Increased Cpar to 6.8e-11
CinC: Increased Cpar to 5.65e-12
Direct Newton iteration for .op point succeeded.
Total elapsed time: 28.941 seconds.

Files loaded:
G:\My Drive\ccd_controller\adc_board_prot\sim\3V3D\3v3d.net
C:\Users\BraxC\AppData\Local\LTspice\lib\sub\LT8642S.sub

